Circuit: * C:\Users\Ossama El Boustani\Workspace\Reposititories\Structured_Electronic_Design\cir\CSstage_Vs.asc

Ignoring BSIM parameter XL
Ignoring BSIM parameter XW
WARNING: Node N004 is floating.

Direct Newton iteration for .op point succeeded.

Date: Thu Nov 26 18:45:16 2020
Total elapsed time: 0.245 seconds.

tnom = 27
temp = 27
method = modified trap
totiter = 2300
traniter = 2293
tranpoints = 1095
accept = 1078
rejected = 17
matrix size = 13
fillins = 5
solver = Normal
Matrix Compiler1: 554 bytes object code size  0.2/0.1/[0.1]
Matrix Compiler2: 899 bytes object code size  0.1/0.2/[0.1]

