Circuit: * C:\Users\maboa\Desktop\Structured Electronic Design\Structured_Electronic_Design\Assignment 2 - Design Study\Design Study 4\cir\CompParallel.asc

Ignoring BSIM parameter XL
Ignoring BSIM parameter XW
Ignoring BSIM parameter XL
Ignoring BSIM parameter XW
Warning: Pd = 0 is less than W.
Warning: Ps = 0 is less than W.
Warning: Pd = 0 is less than W.
Warning: Ps = 0 is less than W.
Direct Newton iteration for .op point succeeded.

Date: Tue Dec 08 17:53:50 2020
Total elapsed time: 0.058 seconds.

tnom = 27
temp = 27
method = modified trap
totiter = 2127
traniter = 2122
tranpoints = 1043
accept = 1043
rejected = 0
matrix size = 12
fillins = 0
solver = Normal
Matrix Compiler1: 338 bytes object code size  0.2/0.1/[0.1]
Matrix Compiler2: 858 bytes object code size  0.1/0.3/[0.1]

