Circuit: * C:\Users\Tom\OneDrive\Desktop\Assignments\Q2\Structured Eelectronic Design\Assignment3_reorganised\Assignment 3\Drive.asc

Ignoring BSIM parameter XL
Ignoring BSIM parameter XW
Ignoring BSIM parameter XL
Ignoring BSIM parameter XW
Warning: Pd = 0 is less than W.
Warning: Ps = 0 is less than W.
Warning: Pd = 0 is less than W.
Warning: Ps = 0 is less than W.
Direct Newton iteration for .op point succeeded.
.step v_b=0
.step v_b=0.05
.step v_b=0.1
.step v_b=0.15
.step v_b=0.2
.step v_b=0.25
.step v_b=0.3
.step v_b=0.35
.step v_b=0.4
.step v_b=0.45
.step v_b=0.5



Date: Wed Dec 16 18:51:00 2020
Total elapsed time: 0.246 seconds.

tnom = 27
temp = 27
method = modified trap
totiter = 1038
traniter = 1034
tranpoints = 518
accept = 518
rejected = 0
matrix size = 12
fillins = 0
solver = Normal
Matrix Compiler1: 356 bytes object code size  0.1/0.1/[0.0]
Matrix Compiler2: 852 bytes object code size  0.1/0.1/[0.1]

